Circuit: * C:\Users\Daniel\Dropbox\Course Work\2019\203 ECEN\Draft1.asc

Direct Newton iteration for .op point succeeded.

Date: Sun Jul 14 22:49:55 2019
Total elapsed time: 0.079 seconds.

tnom = 27
temp = 27
method = modified trap
totiter = 2099
traniter = 2096
tranpoints = 1049
accept = 1049
rejected = 0
matrix size = 3
fillins = 0
solver = Normal
Matrix Compiler1: 50 bytes object code size  0.0/0.1/[0.0]
Matrix Compiler2: off  [0.0]/0.1/0.1

