Circuit: * C:\Users\Daniel\Dropbox\Course Work\2019\203 ECEN\Lab3\Draft2.asc


Date: Thu May 09 15:08:25 2019
Total elapsed time: 0.025 seconds.

tnom = 27
temp = 27
method = trap
totiter = 0
traniter = 0
tranpoints = 0
accept = 0
rejected = 0
matrix size = 4
fillins = 0
solver = Normal

