Circuit: * C:\Users\Daniel\Dropbox\Course Work\2019\203 ECEN\Lab3\part1.asc

Instance "m:u1:6": Length shorter than recommended for a level 2 MOSFET.
Instance "m:u1:5": Length shorter than recommended for a level 2 MOSFET.
Direct Newton iteration for .op point succeeded.

Date: Thu Apr 11 14:04:27 2019
Total elapsed time: 0.271 seconds.

tnom = 27
temp = 27
method = trap
totiter = 15
traniter = 0
tranpoints = 0
accept = 0
rejected = 0
matrix size = 40
fillins = 43
solver = Normal
Matrix Compiler1:     298 opcodes
Matrix Compiler2: 4.17 KB object code size
