.STEP increment has wrong sign -- fixing...
Circuit: * C:\Users\Daniel\Dropbox\Course Work\2019\203 ECEN\lab4.asc

.step 1=1
.step 1=5
.step 1=10
.step 1=15
.step 1=20
.step 1=25
.step 1=30
.step 1=35
.step 1=40
.step 1=45
.step 1=50
.step 1=55
.step 1=60
.step 1=65
.step 1=70
.step 1=75
.step 1=80
.step 1=85
.step 1=90
.step 1=95
.step 1=100

Date: Tue May 14 11:55:01 2019
Total elapsed time: 1.284 seconds.

tnom = 27
temp = 27
method = trap
totiter = 0
traniter = 0
tranpoints = 0
accept = 0
rejected = 0
matrix size = 4
fillins = 0
solver = Normal

